  Page 1                                    Tue Oct 07 11:35:53 2025

  ******************************************************************
  *                           E P A N E T                          *
  *                   Hydraulic and Water Quality                  *
  *                   Analysis for Pipe Networks                   *
  *                         Version 2.2                            *
  ******************************************************************
  
  Analysis begun Tue Oct 07 11:35:53 2025

  WARNING: FCV V_TR open but cannot deliver flow at 0:00:00 hrs.
  WARNING: FCV V_R1 open but cannot deliver flow at 0:00:00 hrs.
   
  WARNING: FCV V_TR open but cannot deliver flow at 1:00:00 hrs.
  WARNING: FCV V_R1 open but cannot deliver flow at 1:00:00 hrs.
   
  WARNING: FCV V_TR open but cannot deliver flow at 2:00:00 hrs.
  WARNING: FCV V_R1 open but cannot deliver flow at 2:00:00 hrs.
   
  WARNING: FCV V_TR open but cannot deliver flow at 3:00:00 hrs.
  WARNING: FCV V_R1 open but cannot deliver flow at 3:00:00 hrs.
   
  WARNING: FCV V_TR open but cannot deliver flow at 4:00:00 hrs.
  WARNING: FCV V_R1 open but cannot deliver flow at 4:00:00 hrs.
   
  WARNING: FCV V_TR open but cannot deliver flow at 5:00:00 hrs.
  WARNING: FCV V_R1 open but cannot deliver flow at 5:00:00 hrs.
   
  WARNING: FCV V_TR open but cannot deliver flow at 6:00:00 hrs.
  WARNING: FCV V_R1 open but cannot deliver flow at 6:00:00 hrs.
   
  WARNING: FCV V_TR open but cannot deliver flow at 7:00:00 hrs.
  WARNING: FCV V_R1 open but cannot deliver flow at 7:00:00 hrs.
   
  WARNING: FCV V_TR open but cannot deliver flow at 8:00:00 hrs.
  WARNING: FCV V_R1 open but cannot deliver flow at 8:00:00 hrs.
   
  WARNING: FCV V_TR open but cannot deliver flow at 9:00:00 hrs.
  WARNING: FCV V_R1 open but cannot deliver flow at 9:00:00 hrs.
   
  WARNING: FCV V_TR open but cannot deliver flow at 10:00:00 hrs.
  WARNING: FCV V_R1 open but cannot deliver flow at 10:00:00 hrs.
   
  WARNING: FCV V_TR open but cannot deliver flow at 11:00:00 hrs.
  WARNING: FCV V_R1 open but cannot deliver flow at 11:00:00 hrs.
   
  WARNING: FCV V_TR open but cannot deliver flow at 12:00:00 hrs.
  WARNING: FCV V_R1 open but cannot deliver flow at 12:00:00 hrs.
   
  WARNING: FCV V_TR open but cannot deliver flow at 13:00:00 hrs.
  WARNING: FCV V_R1 open but cannot deliver flow at 13:00:00 hrs.
   
  WARNING: FCV V_TR open but cannot deliver flow at 14:00:00 hrs.
  WARNING: FCV V_R1 open but cannot deliver flow at 14:00:00 hrs.
   
  WARNING: FCV V_TR open but cannot deliver flow at 15:00:00 hrs.
  WARNING: FCV V_R1 open but cannot deliver flow at 15:00:00 hrs.
   
  WARNING: FCV V_TR open but cannot deliver flow at 16:00:00 hrs.
  WARNING: FCV V_R1 open but cannot deliver flow at 16:00:00 hrs.
   
  WARNING: FCV V_TR open but cannot deliver flow at 17:00:00 hrs.
  WARNING: FCV V_R1 open but cannot deliver flow at 17:00:00 hrs.
   
  WARNING: FCV V_TR open but cannot deliver flow at 18:00:00 hrs.
  WARNING: FCV V_R1 open but cannot deliver flow at 18:00:00 hrs.
   
  WARNING: FCV V_TR open but cannot deliver flow at 19:00:00 hrs.
  WARNING: FCV V_R1 open but cannot deliver flow at 19:00:00 hrs.
   
  WARNING: FCV V_TR open but cannot deliver flow at 20:00:00 hrs.
  WARNING: FCV V_R1 open but cannot deliver flow at 20:00:00 hrs.
   
  WARNING: FCV V_TR open but cannot deliver flow at 21:00:00 hrs.
  WARNING: FCV V_R1 open but cannot deliver flow at 21:00:00 hrs.
   
  WARNING: FCV V_TR open but cannot deliver flow at 22:00:00 hrs.
  WARNING: FCV V_R1 open but cannot deliver flow at 22:00:00 hrs.
   
  WARNING: FCV V_TR open but cannot deliver flow at 23:00:00 hrs.
  WARNING: FCV V_R1 open but cannot deliver flow at 23:00:00 hrs.
   
  WARNING: FCV V_TR open but cannot deliver flow at 24:00:00 hrs.
  WARNING: FCV V_R1 open but cannot deliver flow at 24:00:00 hrs.
   
  WARNING: FCV V_TR open but cannot deliver flow at 25:00:00 hrs.
  WARNING: FCV V_R1 open but cannot deliver flow at 25:00:00 hrs.
   
  WARNING: FCV V_TR open but cannot deliver flow at 26:00:00 hrs.
  WARNING: FCV V_R1 open but cannot deliver flow at 26:00:00 hrs.
   
  WARNING: FCV V_TR open but cannot deliver flow at 27:00:00 hrs.
  WARNING: FCV V_R1 open but cannot deliver flow at 27:00:00 hrs.
   
  WARNING: FCV V_TR open but cannot deliver flow at 28:00:00 hrs.
  WARNING: FCV V_R1 open but cannot deliver flow at 28:00:00 hrs.
   
  WARNING: FCV V_TR open but cannot deliver flow at 29:00:00 hrs.
  WARNING: FCV V_R1 open but cannot deliver flow at 29:00:00 hrs.
   
  WARNING: FCV V_TR open but cannot deliver flow at 30:00:00 hrs.
  WARNING: FCV V_R1 open but cannot deliver flow at 30:00:00 hrs.
   
  WARNING: FCV V_TR open but cannot deliver flow at 31:00:00 hrs.
  WARNING: FCV V_R1 open but cannot deliver flow at 31:00:00 hrs.
   
  WARNING: FCV V_TR open but cannot deliver flow at 32:00:00 hrs.
  WARNING: FCV V_R1 open but cannot deliver flow at 32:00:00 hrs.
   
  WARNING: FCV V_TR open but cannot deliver flow at 33:00:00 hrs.
  WARNING: FCV V_R1 open but cannot deliver flow at 33:00:00 hrs.
   
  WARNING: FCV V_TR open but cannot deliver flow at 34:00:00 hrs.
  WARNING: FCV V_R1 open but cannot deliver flow at 34:00:00 hrs.
   
  WARNING: FCV V_TR open but cannot deliver flow at 35:00:00 hrs.
  WARNING: FCV V_R1 open but cannot deliver flow at 35:00:00 hrs.
   
  WARNING: FCV V_TR open but cannot deliver flow at 36:00:00 hrs.
  WARNING: FCV V_R1 open but cannot deliver flow at 36:00:00 hrs.
   
  WARNING: FCV V_TR open but cannot deliver flow at 37:00:00 hrs.
  WARNING: FCV V_R1 open but cannot deliver flow at 37:00:00 hrs.
   
  WARNING: FCV V_TR open but cannot deliver flow at 38:00:00 hrs.
  WARNING: FCV V_R1 open but cannot deliver flow at 38:00:00 hrs.
   
  WARNING: FCV V_TR open but cannot deliver flow at 39:00:00 hrs.
  WARNING: FCV V_R1 open but cannot deliver flow at 39:00:00 hrs.
   
  WARNING: FCV V_TR open but cannot deliver flow at 40:00:00 hrs.
  WARNING: FCV V_R1 open but cannot deliver flow at 40:00:00 hrs.
   
  WARNING: FCV V_TR open but cannot deliver flow at 41:00:00 hrs.
  WARNING: FCV V_R1 open but cannot deliver flow at 41:00:00 hrs.
   
  WARNING: FCV V_TR open but cannot deliver flow at 42:00:00 hrs.
  WARNING: FCV V_R1 open but cannot deliver flow at 42:00:00 hrs.
   
  WARNING: FCV V_TR open but cannot deliver flow at 43:00:00 hrs.
  WARNING: FCV V_R1 open but cannot deliver flow at 43:00:00 hrs.
   
  WARNING: FCV V_TR open but cannot deliver flow at 44:00:00 hrs.
  WARNING: FCV V_R1 open but cannot deliver flow at 44:00:00 hrs.
   
  WARNING: FCV V_TR open but cannot deliver flow at 45:00:00 hrs.
  WARNING: FCV V_R1 open but cannot deliver flow at 45:00:00 hrs.
   
  WARNING: FCV V_TR open but cannot deliver flow at 46:00:00 hrs.
  WARNING: FCV V_R1 open but cannot deliver flow at 46:00:00 hrs.
   
  WARNING: FCV V_TR open but cannot deliver flow at 47:00:00 hrs.
  WARNING: FCV V_R1 open but cannot deliver flow at 47:00:00 hrs.
   
  WARNING: FCV V_TR open but cannot deliver flow at 48:00:00 hrs.
  WARNING: FCV V_R1 open but cannot deliver flow at 48:00:00 hrs.
   
  WARNING: FCV V_TR open but cannot deliver flow at 49:00:00 hrs.
  WARNING: FCV V_R1 open but cannot deliver flow at 49:00:00 hrs.
   
  WARNING: FCV V_TR open but cannot deliver flow at 50:00:00 hrs.
  WARNING: FCV V_R1 open but cannot deliver flow at 50:00:00 hrs.
   
  WARNING: FCV V_TR open but cannot deliver flow at 51:00:00 hrs.
  WARNING: FCV V_R1 open but cannot deliver flow at 51:00:00 hrs.
   
  WARNING: FCV V_TR open but cannot deliver flow at 52:00:00 hrs.
  WARNING: FCV V_R1 open but cannot deliver flow at 52:00:00 hrs.
   
  WARNING: FCV V_TR open but cannot deliver flow at 53:00:00 hrs.
  WARNING: FCV V_R1 open but cannot deliver flow at 53:00:00 hrs.
   
  WARNING: FCV V_TR open but cannot deliver flow at 54:00:00 hrs.
  WARNING: FCV V_R1 open but cannot deliver flow at 54:00:00 hrs.
   
  WARNING: FCV V_TR open but cannot deliver flow at 55:00:00 hrs.
  WARNING: FCV V_R1 open but cannot deliver flow at 55:00:00 hrs.
   
  WARNING: FCV V_TR open but cannot deliver flow at 56:00:00 hrs.
  WARNING: FCV V_R1 open but cannot deliver flow at 56:00:00 hrs.
   
  WARNING: FCV V_TR open but cannot deliver flow at 57:00:00 hrs.
  WARNING: FCV V_R1 open but cannot deliver flow at 57:00:00 hrs.
   
  WARNING: FCV V_TR open but cannot deliver flow at 58:00:00 hrs.
  WARNING: FCV V_R1 open but cannot deliver flow at 58:00:00 hrs.
   
  WARNING: FCV V_TR open but cannot deliver flow at 59:00:00 hrs.
  WARNING: FCV V_R1 open but cannot deliver flow at 59:00:00 hrs.
   
  WARNING: FCV V_TR open but cannot deliver flow at 60:00:00 hrs.
  WARNING: FCV V_R1 open but cannot deliver flow at 60:00:00 hrs.
   
  WARNING: FCV V_TR open but cannot deliver flow at 61:00:00 hrs.
  WARNING: FCV V_R1 open but cannot deliver flow at 61:00:00 hrs.
   
  WARNING: FCV V_TR open but cannot deliver flow at 62:00:00 hrs.
  WARNING: FCV V_R1 open but cannot deliver flow at 62:00:00 hrs.
   
  WARNING: FCV V_TR open but cannot deliver flow at 63:00:00 hrs.
  WARNING: FCV V_R1 open but cannot deliver flow at 63:00:00 hrs.
   
  WARNING: FCV V_TR open but cannot deliver flow at 64:00:00 hrs.
  WARNING: FCV V_R1 open but cannot deliver flow at 64:00:00 hrs.
   
  WARNING: FCV V_TR open but cannot deliver flow at 65:00:00 hrs.
  WARNING: FCV V_R1 open but cannot deliver flow at 65:00:00 hrs.
   
  WARNING: FCV V_TR open but cannot deliver flow at 66:00:00 hrs.
  WARNING: FCV V_R1 open but cannot deliver flow at 66:00:00 hrs.
   
  WARNING: FCV V_TR open but cannot deliver flow at 67:00:00 hrs.
  WARNING: FCV V_R1 open but cannot deliver flow at 67:00:00 hrs.
   
  WARNING: FCV V_TR open but cannot deliver flow at 68:00:00 hrs.
  WARNING: FCV V_R1 open but cannot deliver flow at 68:00:00 hrs.
   
  WARNING: FCV V_TR open but cannot deliver flow at 69:00:00 hrs.
  WARNING: FCV V_R1 open but cannot deliver flow at 69:00:00 hrs.
   
  WARNING: FCV V_TR open but cannot deliver flow at 70:00:00 hrs.
  WARNING: FCV V_R1 open but cannot deliver flow at 70:00:00 hrs.
   
  WARNING: FCV V_TR open but cannot deliver flow at 71:00:00 hrs.
  WARNING: FCV V_R1 open but cannot deliver flow at 71:00:00 hrs.
   
  WARNING: FCV V_TR open but cannot deliver flow at 72:00:00 hrs.
  WARNING: FCV V_R1 open but cannot deliver flow at 72:00:00 hrs.
   
  WARNING: FCV V_TR open but cannot deliver flow at 73:00:00 hrs.
  WARNING: FCV V_R1 open but cannot deliver flow at 73:00:00 hrs.
   
  WARNING: FCV V_TR open but cannot deliver flow at 74:00:00 hrs.
  WARNING: FCV V_R1 open but cannot deliver flow at 74:00:00 hrs.
   
  WARNING: FCV V_TR open but cannot deliver flow at 75:00:00 hrs.
  WARNING: FCV V_R1 open but cannot deliver flow at 75:00:00 hrs.
   
  WARNING: FCV V_TR open but cannot deliver flow at 76:00:00 hrs.
  WARNING: FCV V_R1 open but cannot deliver flow at 76:00:00 hrs.
   
  WARNING: FCV V_TR open but cannot deliver flow at 77:00:00 hrs.
  WARNING: FCV V_R1 open but cannot deliver flow at 77:00:00 hrs.
   
  WARNING: FCV V_TR open but cannot deliver flow at 78:00:00 hrs.
  WARNING: FCV V_R1 open but cannot deliver flow at 78:00:00 hrs.
   
  WARNING: FCV V_TR open but cannot deliver flow at 79:00:00 hrs.
  WARNING: FCV V_R1 open but cannot deliver flow at 79:00:00 hrs.
   
  WARNING: FCV V_TR open but cannot deliver flow at 80:00:00 hrs.
  WARNING: FCV V_R1 open but cannot deliver flow at 80:00:00 hrs.
   
  WARNING: FCV V_TR open but cannot deliver flow at 81:00:00 hrs.
  WARNING: FCV V_R1 open but cannot deliver flow at 81:00:00 hrs.
   
  WARNING: FCV V_TR open but cannot deliver flow at 82:00:00 hrs.
  WARNING: FCV V_R1 open but cannot deliver flow at 82:00:00 hrs.
   
  WARNING: FCV V_TR open but cannot deliver flow at 83:00:00 hrs.
  WARNING: FCV V_R1 open but cannot deliver flow at 83:00:00 hrs.
   
  WARNING: FCV V_TR open but cannot deliver flow at 84:00:00 hrs.
  WARNING: FCV V_R1 open but cannot deliver flow at 84:00:00 hrs.
   
  WARNING: FCV V_TR open but cannot deliver flow at 85:00:00 hrs.
  WARNING: FCV V_R1 open but cannot deliver flow at 85:00:00 hrs.
   
  WARNING: FCV V_TR open but cannot deliver flow at 86:00:00 hrs.
  WARNING: FCV V_R1 open but cannot deliver flow at 86:00:00 hrs.
   
  WARNING: FCV V_TR open but cannot deliver flow at 87:00:00 hrs.
  WARNING: FCV V_R1 open but cannot deliver flow at 87:00:00 hrs.
   
  WARNING: FCV V_TR open but cannot deliver flow at 88:00:00 hrs.
  WARNING: FCV V_R1 open but cannot deliver flow at 88:00:00 hrs.
   
  WARNING: FCV V_TR open but cannot deliver flow at 89:00:00 hrs.
  WARNING: FCV V_R1 open but cannot deliver flow at 89:00:00 hrs.
   
  WARNING: FCV V_TR open but cannot deliver flow at 90:00:00 hrs.
  WARNING: FCV V_R1 open but cannot deliver flow at 90:00:00 hrs.
   
  WARNING: FCV V_TR open but cannot deliver flow at 91:00:00 hrs.
  WARNING: FCV V_R1 open but cannot deliver flow at 91:00:00 hrs.
   
  WARNING: FCV V_TR open but cannot deliver flow at 92:00:00 hrs.
  WARNING: FCV V_R1 open but cannot deliver flow at 92:00:00 hrs.
   
  WARNING: FCV V_TR open but cannot deliver flow at 93:00:00 hrs.
  WARNING: FCV V_R1 open but cannot deliver flow at 93:00:00 hrs.
   
  WARNING: FCV V_TR open but cannot deliver flow at 94:00:00 hrs.
  WARNING: FCV V_R1 open but cannot deliver flow at 94:00:00 hrs.
   
  WARNING: FCV V_TR open but cannot deliver flow at 95:00:00 hrs.
  WARNING: FCV V_R1 open but cannot deliver flow at 95:00:00 hrs.
   
  WARNING: FCV V_TR open but cannot deliver flow at 96:00:00 hrs.
  WARNING: FCV V_R1 open but cannot deliver flow at 96:00:00 hrs.
   
  WARNING: FCV V_TR open but cannot deliver flow at 97:00:00 hrs.
  WARNING: FCV V_R1 open but cannot deliver flow at 97:00:00 hrs.
   
  WARNING: FCV V_TR open but cannot deliver flow at 98:00:00 hrs.
  WARNING: FCV V_R1 open but cannot deliver flow at 98:00:00 hrs.
   
  WARNING: FCV V_TR open but cannot deliver flow at 99:00:00 hrs.
  WARNING: FCV V_R1 open but cannot deliver flow at 99:00:00 hrs.
   
  WARNING: FCV V_TR open but cannot deliver flow at 100:00:00 hrs.
  WARNING: FCV V_R1 open but cannot deliver flow at 100:00:00 hrs.
   
  WARNING: FCV V_TR open but cannot deliver flow at 101:00:00 hrs.
  WARNING: FCV V_R1 open but cannot deliver flow at 101:00:00 hrs.
   
  WARNING: FCV V_TR open but cannot deliver flow at 102:00:00 hrs.
  WARNING: FCV V_R1 open but cannot deliver flow at 102:00:00 hrs.
   
  WARNING: FCV V_TR open but cannot deliver flow at 103:00:00 hrs.
  WARNING: FCV V_R1 open but cannot deliver flow at 103:00:00 hrs.
   
  WARNING: FCV V_TR open but cannot deliver flow at 104:00:00 hrs.
  WARNING: FCV V_R1 open but cannot deliver flow at 104:00:00 hrs.
   
  WARNING: FCV V_TR open but cannot deliver flow at 105:00:00 hrs.
  WARNING: FCV V_R1 open but cannot deliver flow at 105:00:00 hrs.
   
  WARNING: FCV V_TR open but cannot deliver flow at 106:00:00 hrs.
  WARNING: FCV V_R1 open but cannot deliver flow at 106:00:00 hrs.
   
  WARNING: FCV V_TR open but cannot deliver flow at 107:00:00 hrs.
  WARNING: FCV V_R1 open but cannot deliver flow at 107:00:00 hrs.
   
  WARNING: FCV V_TR open but cannot deliver flow at 108:00:00 hrs.
  WARNING: FCV V_R1 open but cannot deliver flow at 108:00:00 hrs.
   
  WARNING: FCV V_TR open but cannot deliver flow at 109:00:00 hrs.
  WARNING: FCV V_R1 open but cannot deliver flow at 109:00:00 hrs.
   
  WARNING: FCV V_TR open but cannot deliver flow at 110:00:00 hrs.
  WARNING: FCV V_R1 open but cannot deliver flow at 110:00:00 hrs.
   
  WARNING: FCV V_TR open but cannot deliver flow at 111:00:00 hrs.
  WARNING: FCV V_R1 open but cannot deliver flow at 111:00:00 hrs.
   
  WARNING: FCV V_TR open but cannot deliver flow at 112:00:00 hrs.
  WARNING: FCV V_R1 open but cannot deliver flow at 112:00:00 hrs.
   
  WARNING: FCV V_TR open but cannot deliver flow at 113:00:00 hrs.
  WARNING: FCV V_R1 open but cannot deliver flow at 113:00:00 hrs.
   
  WARNING: FCV V_TR open but cannot deliver flow at 114:00:00 hrs.
  WARNING: FCV V_R1 open but cannot deliver flow at 114:00:00 hrs.
   
  WARNING: FCV V_TR open but cannot deliver flow at 115:00:00 hrs.
  WARNING: FCV V_R1 open but cannot deliver flow at 115:00:00 hrs.
   
  WARNING: FCV V_TR open but cannot deliver flow at 116:00:00 hrs.
  WARNING: FCV V_R1 open but cannot deliver flow at 116:00:00 hrs.
   
  WARNING: FCV V_TR open but cannot deliver flow at 117:00:00 hrs.
  WARNING: FCV V_R1 open but cannot deliver flow at 117:00:00 hrs.
   
  WARNING: FCV V_TR open but cannot deliver flow at 118:00:00 hrs.
  WARNING: FCV V_R1 open but cannot deliver flow at 118:00:00 hrs.
   
  WARNING: FCV V_TR open but cannot deliver flow at 119:00:00 hrs.
  WARNING: FCV V_R1 open but cannot deliver flow at 119:00:00 hrs.
   
  WARNING: FCV V_TR open but cannot deliver flow at 120:00:00 hrs.
  WARNING: FCV V_R1 open but cannot deliver flow at 120:00:00 hrs.
   
  WARNING: FCV V_TR open but cannot deliver flow at 121:00:00 hrs.
  WARNING: FCV V_R1 open but cannot deliver flow at 121:00:00 hrs.
   
  WARNING: FCV V_TR open but cannot deliver flow at 122:00:00 hrs.
  WARNING: FCV V_R1 open but cannot deliver flow at 122:00:00 hrs.
   
  WARNING: FCV V_TR open but cannot deliver flow at 123:00:00 hrs.
  WARNING: FCV V_R1 open but cannot deliver flow at 123:00:00 hrs.
   
  WARNING: FCV V_TR open but cannot deliver flow at 124:00:00 hrs.
  WARNING: FCV V_R1 open but cannot deliver flow at 124:00:00 hrs.
   
  WARNING: FCV V_TR open but cannot deliver flow at 125:00:00 hrs.
  WARNING: FCV V_R1 open but cannot deliver flow at 125:00:00 hrs.
   
  WARNING: FCV V_TR open but cannot deliver flow at 126:00:00 hrs.
  WARNING: FCV V_R1 open but cannot deliver flow at 126:00:00 hrs.
   
  WARNING: FCV V_TR open but cannot deliver flow at 127:00:00 hrs.
  WARNING: FCV V_R1 open but cannot deliver flow at 127:00:00 hrs.
   
  WARNING: FCV V_TR open but cannot deliver flow at 128:00:00 hrs.
  WARNING: FCV V_R1 open but cannot deliver flow at 128:00:00 hrs.
   
  WARNING: FCV V_TR open but cannot deliver flow at 129:00:00 hrs.
  WARNING: FCV V_R1 open but cannot deliver flow at 129:00:00 hrs.
   
  WARNING: FCV V_TR open but cannot deliver flow at 130:00:00 hrs.
  WARNING: FCV V_R1 open but cannot deliver flow at 130:00:00 hrs.
   
  WARNING: FCV V_TR open but cannot deliver flow at 131:00:00 hrs.
  WARNING: FCV V_R1 open but cannot deliver flow at 131:00:00 hrs.
   
  WARNING: FCV V_TR open but cannot deliver flow at 132:00:00 hrs.
  WARNING: FCV V_R1 open but cannot deliver flow at 132:00:00 hrs.
   
  WARNING: FCV V_TR open but cannot deliver flow at 133:00:00 hrs.
  WARNING: FCV V_R1 open but cannot deliver flow at 133:00:00 hrs.
   
  WARNING: FCV V_TR open but cannot deliver flow at 134:00:00 hrs.
  WARNING: FCV V_R1 open but cannot deliver flow at 134:00:00 hrs.
   
  WARNING: FCV V_TR open but cannot deliver flow at 135:00:00 hrs.
  WARNING: FCV V_R1 open but cannot deliver flow at 135:00:00 hrs.
   
  WARNING: FCV V_TR open but cannot deliver flow at 136:00:00 hrs.
  WARNING: FCV V_R1 open but cannot deliver flow at 136:00:00 hrs.
   
  WARNING: FCV V_TR open but cannot deliver flow at 137:00:00 hrs.
  WARNING: FCV V_R1 open but cannot deliver flow at 137:00:00 hrs.
   
  WARNING: FCV V_TR open but cannot deliver flow at 138:00:00 hrs.
  WARNING: FCV V_R1 open but cannot deliver flow at 138:00:00 hrs.
   
  WARNING: FCV V_TR open but cannot deliver flow at 139:00:00 hrs.
  WARNING: FCV V_R1 open but cannot deliver flow at 139:00:00 hrs.
   
  WARNING: FCV V_TR open but cannot deliver flow at 140:00:00 hrs.
  WARNING: FCV V_R1 open but cannot deliver flow at 140:00:00 hrs.
   
  WARNING: FCV V_TR open but cannot deliver flow at 141:00:00 hrs.
  WARNING: FCV V_R1 open but cannot deliver flow at 141:00:00 hrs.
   
  WARNING: FCV V_TR open but cannot deliver flow at 142:00:00 hrs.
  WARNING: FCV V_R1 open but cannot deliver flow at 142:00:00 hrs.
   
  WARNING: FCV V_TR open but cannot deliver flow at 143:00:00 hrs.
  WARNING: FCV V_R1 open but cannot deliver flow at 143:00:00 hrs.
   
  WARNING: FCV V_TR open but cannot deliver flow at 144:00:00 hrs.
  WARNING: FCV V_R1 open but cannot deliver flow at 144:00:00 hrs.
   
  WARNING: FCV V_TR open but cannot deliver flow at 145:00:00 hrs.
  WARNING: FCV V_R1 open but cannot deliver flow at 145:00:00 hrs.
   
  WARNING: FCV V_TR open but cannot deliver flow at 146:00:00 hrs.
  WARNING: FCV V_R1 open but cannot deliver flow at 146:00:00 hrs.
   
  WARNING: FCV V_TR open but cannot deliver flow at 147:00:00 hrs.
  WARNING: FCV V_R1 open but cannot deliver flow at 147:00:00 hrs.
   
  WARNING: FCV V_TR open but cannot deliver flow at 148:00:00 hrs.
  WARNING: FCV V_R1 open but cannot deliver flow at 148:00:00 hrs.
   
  WARNING: FCV V_TR open but cannot deliver flow at 149:00:00 hrs.
  WARNING: FCV V_R1 open but cannot deliver flow at 149:00:00 hrs.
   
  WARNING: FCV V_TR open but cannot deliver flow at 150:00:00 hrs.
  WARNING: FCV V_R1 open but cannot deliver flow at 150:00:00 hrs.
   
  WARNING: FCV V_TR open but cannot deliver flow at 151:00:00 hrs.
  WARNING: FCV V_R1 open but cannot deliver flow at 151:00:00 hrs.
   
  WARNING: FCV V_TR open but cannot deliver flow at 152:00:00 hrs.
  WARNING: FCV V_R1 open but cannot deliver flow at 152:00:00 hrs.
   
  WARNING: FCV V_TR open but cannot deliver flow at 153:00:00 hrs.
  WARNING: FCV V_R1 open but cannot deliver flow at 153:00:00 hrs.
   
  WARNING: FCV V_TR open but cannot deliver flow at 154:00:00 hrs.
  WARNING: FCV V_R1 open but cannot deliver flow at 154:00:00 hrs.
   
  WARNING: FCV V_TR open but cannot deliver flow at 155:00:00 hrs.
  WARNING: FCV V_R1 open but cannot deliver flow at 155:00:00 hrs.
   
  WARNING: FCV V_TR open but cannot deliver flow at 156:00:00 hrs.
  WARNING: FCV V_R1 open but cannot deliver flow at 156:00:00 hrs.
   
  WARNING: FCV V_TR open but cannot deliver flow at 157:00:00 hrs.
  WARNING: FCV V_R1 open but cannot deliver flow at 157:00:00 hrs.
   
  WARNING: FCV V_TR open but cannot deliver flow at 158:00:00 hrs.
  WARNING: FCV V_R1 open but cannot deliver flow at 158:00:00 hrs.
   
  WARNING: FCV V_TR open but cannot deliver flow at 159:00:00 hrs.
  WARNING: FCV V_R1 open but cannot deliver flow at 159:00:00 hrs.
   
  WARNING: FCV V_TR open but cannot deliver flow at 160:00:00 hrs.
  WARNING: FCV V_R1 open but cannot deliver flow at 160:00:00 hrs.
   
  WARNING: FCV V_TR open but cannot deliver flow at 161:00:00 hrs.
  WARNING: FCV V_R1 open but cannot deliver flow at 161:00:00 hrs.
   
  WARNING: FCV V_TR open but cannot deliver flow at 162:00:00 hrs.
  WARNING: FCV V_R1 open but cannot deliver flow at 162:00:00 hrs.
   
  WARNING: FCV V_TR open but cannot deliver flow at 163:00:00 hrs.
  WARNING: FCV V_R1 open but cannot deliver flow at 163:00:00 hrs.
   
  WARNING: FCV V_TR open but cannot deliver flow at 164:00:00 hrs.
  WARNING: FCV V_R1 open but cannot deliver flow at 164:00:00 hrs.
   
  WARNING: FCV V_TR open but cannot deliver flow at 165:00:00 hrs.
  WARNING: FCV V_R1 open but cannot deliver flow at 165:00:00 hrs.
   
  WARNING: FCV V_TR open but cannot deliver flow at 166:00:00 hrs.
  WARNING: FCV V_R1 open but cannot deliver flow at 166:00:00 hrs.
   
  WARNING: FCV V_TR open but cannot deliver flow at 167:00:00 hrs.
  WARNING: FCV V_R1 open but cannot deliver flow at 167:00:00 hrs.
   
  WARNING: FCV V_TR open but cannot deliver flow at 168:00:00 hrs.
  WARNING: FCV V_R1 open but cannot deliver flow at 168:00:00 hrs.
   